<routes>

    <vType
        id="car"
        accel="1.0"
        decel="4.5"
        sigma="0.5"
        length="5"
        maxSpeed="25"/>

    <route id="northSouth" edges="n2c c2s"/>
    <route id="southNorth" edges="s2c c2n"/>

    <route id="eastWest" edges="e2c c2w"/>
    <route id="westEast" edges="w2c c2e"/>

    <route id="northEast" edges="n2c c2e"/>
    <route id="northWest" edges="n2c c2w"/>

    <route id="southEast" edges="s2c c2e"/>
    <route id="southWest" edges="s2c c2w"/>

    <route id="eastNorth" edges="e2c c2n"/>
    <route id="eastSouth" edges="e2c c2s"/>

    <route id="westNorth" edges="w2c c2n"/>
    <route id="westSouth" edges="w2c c2s"/>

</routes>