<routes>

    <vType id="car"
            accel="1.0"
            decel="4.5"
            sigma="0.5"
            length="5"
            maxSpeed="25"/>

    <route id="northSouth"
            edges="n2c c2s"/>

    <route id="westEast"
            edges="w2c c2e"/>

    <flow id="northFlow"
          type="car"
          route="northSouth"
          begin="0"
          end="300"
          probability="0.4"/>

    <flow id="westFlow"
          type="car"
          route="westEast"
          begin="0"
          end="300"
          probability="0.4"/>

</routes>